216

C -8.422447 -3.018454 8.906798
C -7.185023 -2.254638 8.914320
C -7.225284 -0.860840 8.917056
C -6.037170 -0.133180 8.938711
C -4.800563 -0.792096 8.955683
B -3.441094 0.034180 8.991611
O -2.252483 -0.625221 8.979724
B -1.095604 0.086079 8.960602
C 0.298777 -0.676363 8.872375
C 1.500318 0.040634 8.792822
C 2.719074 -0.628901 8.712582
C 2.745513 -2.023332 8.712572
C 4.017059 -2.723188 8.632114
C 1.556670 -2.748695 8.787288
C 0.340129 -2.076060 8.867229
O -1.116528 1.442739 8.991121
B -2.309982 2.088675 9.008136
C -2.343340 3.675379 8.908987
C -1.150285 4.404880 8.824511
C -1.177614 5.792692 8.715281
C -2.401004 6.461325 8.697200
C -2.434050 7.909456 8.587727
C -3.595091 5.748246 8.784356
C -3.564837 4.360634 8.891741
O -3.476952 1.390816 9.028848
C -4.775056 -2.192105 8.942287
C -5.960963 -2.921332 8.922323
H -8.174088 -0.342466 8.903514
H -6.080957 0.947838 8.945224
H 1.491632 1.122151 8.789963
H 3.638740 -0.063868 8.650328
H 1.573292 -3.828993 8.784597
H -0.575867 -2.647919 8.923746
H -0.198113 3.893190 8.834138
H -0.248477 6.341645 8.646902
H -4.542568 6.267677 8.767104
H -4.496816 3.817315 8.956788
H -3.831365 -2.719617 8.950316
H -5.925293 -4.001592 8.915645
C -10.816468 -4.459814 5.122412
C -10.495690 -4.263307 3.719108
C -10.974898 -3.138551 3.050049
C -10.685137 -2.962340 1.699881
C -9.910887 -3.903963 1.010255
B -9.574557 -3.698436 -0.530568
O -10.031718 -2.595706 -1.177524
B -9.661070 -2.377435 -2.465907
C -10.102251 -1.031541 -3.190157
C -9.704598 -0.770198 -4.507355
C -10.083347 0.411607 -5.139580
C -10.866844 1.341679 -4.457221
C -11.267451 2.573262 -5.117220
C -11.268409 1.094644 -3.144936
C -10.888060 -0.088082 -2.515769
O -8.876574 -3.273254 -3.122993
B -8.436972 -4.378064 -2.464708
C -7.446325 -5.392373 -3.186407
C -6.975191 -6.525339 -2.509093
C -6.104705 -7.413971 -3.135563
C -5.701726 -7.177478 -4.449355
C -4.802265 -8.108004 -5.111887
C -6.159296 -6.051936 -5.132948
C -7.027565 -5.163481 -4.503427
O -8.803701 -4.608775 -1.177175
C -9.429147 -5.025357 1.697278
C -9.719509 -5.205475 3.046744
H -11.573883 -2.405704 3.572303
H -11.062475 -2.086586 1.190524
H -9.095844 -1.485091 -5.043640
H -9.767365 0.601382 -6.155923
H -11.872041 1.816738 -2.612315
H -11.205705 -0.268591 -1.497743
H -7.281010 -6.717045 -1.490587
H -5.747372 -8.283224 -2.599939
H -5.841119 -5.863759 -6.148711
H -7.375080 -4.293811 -5.042839
H -8.824863 -5.761600 1.185159
H -9.344622 -6.075866 3.565883
C 6.297184 -4.075968 4.709804
C 5.912789 -3.903477 3.317609
C 5.156086 -4.886228 2.681003
C 4.794825 -4.727929 1.345104
C 5.185739 -3.585546 0.633340
B 4.770903 -3.401540 -0.891718
O 4.009473 -4.345985 -1.500452
B 3.577783 -4.136015 -2.770112
C 2.583251 -5.180219 -3.439976
C 2.182014 -6.326982 -2.742265
C 1.305992 -7.237954 -3.327189
C 0.825192 -7.009233 -4.616703
C -0.080468 -7.963202 -5.234015
C 1.213875 -5.868868 -5.318958
C 2.089484 -4.958985 -4.731849
O 3.947621 -3.020670 -3.453372
B 4.716726 -2.087618 -2.835968
C 5.048687 -0.719842 -3.580078
C 5.809163 0.267445 -2.939530
C 6.091090 1.471308 -3.580137
C 5.613729 1.698923 -4.869853
C 5.908447 2.954625 -5.541861
C 4.854569 0.725520 -5.518936
C 4.575159 -0.478580 -4.876448
O 5.150488 -2.282812 -1.562351
C 5.941165 -2.601981 1.286107
C 6.302624 -2.759109 2.622315
H 4.851129 -5.773736 3.218827
H 4.206216 -5.496249 0.863092
H 2.548576 -6.512278 -1.741777
H 1.004718 -8.119628 -2.778322
H 0.839912 -5.687387 -6.316798
H 2.383517 -4.077131 -5.284081
H 6.183714 0.101120 -1.938791
H 6.678216 2.224148 -3.073712
H 4.484738 0.900644 -6.519617
H 3.983740 -1.223979 -5.389869
H 6.247345 -1.711010 0.756132
H 6.886897 -1.992729 3.113445
C -2.588900 10.610308 4.690157
C -2.615887 10.170864 3.303514
C -3.838179 9.937821 2.673353
C -3.863745 9.511961 1.347647
C -2.670918 9.313107 0.640563
B -2.698332 8.812001 -0.870980
O -1.529782 8.624294 -1.536470
B -1.557683 8.148057 -2.808604
C -0.190764 7.858215 -3.570143
C 1.037949 8.099875 -2.940582
C 2.234614 7.835391 -3.601781
C 2.210986 7.325721 -4.898902
C 3.458616 7.036438 -5.585275
C 0.995851 7.084736 -5.538593
C -0.199374 7.350679 -4.875787
O -2.738559 7.892023 -3.427462
B -3.899447 8.082170 -2.747561
C -5.285532 7.721503 -3.440916
C -6.493326 7.909446 -2.755174
C -7.706729 7.584041 -3.356970
C -7.722364 7.069089 -4.652728
C -8.989075 6.727323 -5.282466
C -6.528312 6.878785 -5.346498
C -5.316067 7.203893 -4.743146
O -3.888555 8.555941 -1.474890
C -1.450091 9.554827 1.285322
C -1.421164 9.982294 2.610281
H -4.765306 10.083818 3.208065
H -4.816350 9.330481 0.869694
H 1.067568 8.489092 -1.932560
H 3.175637 8.021353 -3.103479
H 0.976753 6.688708 -6.544258
H -1.135382 7.153680 -5.379363
H -6.492517 8.304235 -1.748657
H -8.630710 7.732174 -2.816055
H -6.537368 6.476759 -6.349482
H -4.396245 7.049450 -5.289508
H -0.517849 9.407086 0.757950
H -0.472087 10.161427 3.095495
C -9.465066 -3.654355 8.887181
C -10.712778 -4.403090 8.840159
C -11.431505 -4.831766 9.951007
N -12.549633 -5.502884 9.531712
C -12.556323 -5.508123 8.162974
C -11.432698 -4.834024 7.699441
C -11.102112 -4.633506 6.296517
H -11.225332 -4.704584 11.003560
H -13.251896 -5.922815 10.129655
H -13.355517 -5.985602 7.616435
C 5.085301 -3.309145 8.551134
C 6.355001 -4.010951 8.436648
C 7.137817 -4.414815 9.512630
N 8.258247 -5.042301 9.041188
C 8.201714 -5.048829 7.673813
C 7.034930 -4.416422 7.261459
C 6.634458 -4.231662 5.873344
H 6.974957 -4.298084 10.573306
H 9.002050 -5.430676 9.607329
H 8.991726 -5.499929 7.091925
C -2.459398 9.128255 8.509204
C -2.504546 10.580137 8.417305
C -2.506366 11.443454 9.506456
N -2.557989 12.732994 9.054719
C -2.583526 12.707544 7.686483
C -2.551421 11.387335 7.252705
C -2.566890 10.969666 5.856909
H -2.476584 11.232515 10.564714
H -2.572915 13.562911 9.633786
H -2.623517 13.623382 7.116490
C -4.049298 -8.883564 -5.678309
C -3.131375 -9.788278 -6.354961
C -3.513407 -10.892538 -7.105939
N -2.396359 -11.510698 -7.597761
C -1.298805 -10.817859 -7.164865
C -1.716155 -9.740625 -6.391156
C -0.826826 -8.776923 -5.757448
H -4.498891 -11.278332 -7.322740
H -2.386073 -12.337953 -8.180899
H -0.302925 -11.137086 -7.434652
C -11.607743 3.602329 -5.680432
C -12.002913 4.824053 -6.366067
C -13.168110 4.974564 -7.110588
N -13.217814 6.246355 -7.613132
C -12.096727 6.914341 -7.200135
C -11.318789 6.063749 -6.422820
C -10.050037 6.427649 -5.807820
H -13.958430 4.267784 -7.314824
H -13.956088 6.627338 -8.191080
H -11.929643 7.942435 -7.485494
C 6.162746 4.003332 -6.114380
C 6.483016 5.241740 -6.811291
C 7.604230 5.435178 -7.610723
N 7.587147 6.710514 -8.107552
C 6.468463 7.339343 -7.632556
C 5.756515 6.458258 -6.829449
C 4.506338 6.777175 -6.155995
H 8.407955 4.757592 -7.855783
H 8.283295 7.120113 -8.718919
H 6.256190 8.365204 -7.896762
