458

N -11.080527 -4.705503 12.760223
C -9.863379 -4.053208 13.008040
C -8.611650 -4.690334 13.007758
C -7.455017 -4.005739 13.373267
C -7.517175 -2.671941 13.789820
C -6.287741 -1.950020 14.230164
C -6.083714 -0.606571 13.899264
C -4.953680 0.075823 14.344316
C -3.989240 -0.571113 15.132234
C -2.733937 0.157430 15.678931
C -2.710551 0.068745 17.234177
C -1.452053 0.730978 17.842377
C -1.428607 2.215780 17.413218
C -1.412523 2.392824 15.861994
C -1.395097 3.880066 15.418794
C -1.396048 4.198135 14.052872
C -1.367474 5.523332 13.625740
C -1.337170 6.570336 14.551220
C -1.287298 7.990358 14.101921
C -2.068567 8.965284 14.730021
C -1.991482 10.298306 14.334230
C -1.159652 10.695732 13.287183
N -1.058690 12.066673 13.016212
C -0.363195 9.716675 12.672352
C -0.435648 8.381588 13.064244
C -1.341616 6.259009 15.913393
C -1.369998 4.935907 16.343103
C -2.676700 1.673728 15.299358
C -0.148119 1.658943 15.323894
C -0.140410 0.142165 15.684648
C 1.109432 -0.546786 15.075318
C 2.051797 -1.221563 15.866011
C 3.166563 -1.822136 15.289126
C 3.379427 -1.765941 13.908587
C 4.585387 -2.401439 13.303101
C 4.499547 -3.113022 12.101278
C 5.628134 -3.722365 11.554985
C 6.863053 -3.662308 12.201987
N 7.969342 -4.285541 11.610091
C 6.953856 -2.913193 13.384087
C 5.831208 -2.297754 13.930281
C 2.439255 -1.101675 13.115430
C 1.319821 -0.504057 13.689363
C -0.203258 0.037736 17.243776
C -1.439649 -0.510870 15.122054
C -4.186878 -1.924055 15.440746
C -5.320138 -2.600420 15.001390
C -8.764928 -2.040693 13.817450
C -9.917072 -2.728226 13.442316
H -8.531951 -5.730726 12.733562
H -6.508519 -4.524967 13.347534
H -6.808817 -0.081289 13.294959
H -4.857373 1.113935 14.067398
H -2.749893 -0.968258 17.568321
H -3.607854 0.535605 17.644623
H -1.457999 0.643923 18.930416
H -0.554059 2.694880 17.856913
H -2.297716 2.718914 17.840815
H -1.414893 3.418708 13.305996
H -1.371869 5.735943 12.566665
H -2.732920 8.694803 15.537330
H -2.584155 11.040514 14.848236
H 0.333466 9.995465 11.897075
H 0.197672 7.654331 12.578075
H -1.308237 7.048784 16.649826
H -1.365102 4.762098 17.407412
H -3.568216 2.184814 15.667170
H -2.700044 1.768314 14.213583
H -0.089348 1.780864 14.243238
H 0.751368 2.136461 15.716713
H 1.947282 -1.297245 16.936663
H 3.868775 -2.339796 15.926011
H 3.553113 -3.207178 11.589730
H 5.543432 -4.268494 10.627241
H 7.905770 -2.808111 13.881645
H 5.935314 -1.731798 14.844140
H 2.579228 -1.037328 12.046264
H 0.617988 -0.000979 13.041211
H 0.691450 0.479118 17.686443
H -0.205608 -1.009439 17.551016
H -1.427429 -1.575605 15.358014
H -1.454773 -0.456922 14.032812
H -3.468227 -2.463887 16.039017
H -5.451824 -3.635443 15.280668
H -8.852293 -1.019495 14.157504
H -10.873533 -2.230117 13.498649
N -13.305615 -6.483119 7.305036
C -13.508929 -6.405577 5.919940
C -12.436328 -6.726137 5.087159
C -12.552115 -6.655975 3.701067
C -13.747415 -6.237875 3.109498
C -13.891068 -6.219687 1.628254
C -15.020467 -6.775004 1.022310
C -15.140171 -6.810346 -0.363621
C -14.130693 -6.285663 -1.185555
C -14.206020 -6.353203 -2.733919
C -15.471929 -7.105738 -3.255487
C -15.522696 -7.188447 -4.799377
C -14.250966 -7.918945 -5.295661
C -12.947706 -7.194224 -4.853945
C -11.711176 -7.943460 -5.416531
C -11.536485 -8.041835 -6.804230
C -10.439328 -8.707993 -7.342217
C -9.488059 -9.302422 -6.509296
C -8.319226 -10.022262 -7.086084
C -7.579723 -9.460069 -8.130562
C -6.493637 -10.141535 -8.674950
C -6.098252 -11.386205 -8.183209
N -5.050910 -12.045944 -8.841767
C -6.866891 -11.961016 -7.158020
C -7.950776 -11.282187 -6.605645
C -9.658571 -9.212875 -5.125407
C -10.752344 -8.542343 -4.584291
C -12.964010 -7.111557 -3.293549
C -12.986382 -5.731113 -5.392849
C -14.236257 -4.938714 -4.898924
C -14.202531 -3.492220 -5.459602
C -13.098438 -2.669479 -5.193728
C -13.021177 -1.382115 -5.719656
C -14.047613 -0.877033 -6.523024
C -13.953211 0.483745 -7.124370
C -14.331441 0.694494 -8.453811
C -14.245133 1.961292 -9.023313
C -13.799941 3.062246 -8.275823
N -13.634657 4.342922 -8.821233
C -13.386147 2.836527 -6.962073
C -13.473137 1.570090 -6.385342
C -15.162529 -1.683380 -6.767721
C -15.241042 -2.970823 -6.246330
C -15.500175 -5.742017 -5.350476
C -14.226826 -4.918192 -3.340987
C -13.014368 -5.700575 -0.570149
C -12.893909 -5.672749 0.816718
C -14.808024 -5.855223 3.935672
C -14.683784 -5.921412 5.321688
H -11.507053 -7.057425 5.526309
H -11.713257 -6.948303 3.086772
H -15.802834 -7.207532 1.628848
H -16.026794 -7.268544 -0.772172
H -16.377558 -6.610126 -2.901464
H -15.503539 -8.117798 -2.847846
H -16.421463 -7.713234 -5.128252
H -14.294917 -8.005084 -6.382096
H -14.247559 -8.945977 -4.926045
H -12.254086 -7.604865 -7.482421
H -10.336016 -8.772593 -8.415701
H -7.846191 -8.491125 -8.526383
H -5.944584 -9.698215 -9.492394
H -6.630463 -12.948318 -6.792576
H -8.522027 -11.750466 -5.817611
H -8.933241 -9.659600 -4.461092
H -10.828893 -8.504699 -3.508982
H -12.947856 -8.115512 -2.865799
H -12.047623 -6.625097 -2.958969
H -12.066426 -5.226937 -5.095582
H -12.980434 -5.721182 -6.483056
H -12.279557 -3.026313 -4.587111
H -12.145998 -0.782453 -5.516302
H -14.677506 -0.130727 -9.058562
H -14.517248 2.087877 -10.059927
H -13.001700 3.661206 -6.380621
H -13.165792 1.437229 -5.358632
H -15.977400 -1.313251 -7.372590
H -16.122643 -3.545778 -6.480854
H -15.552576 -5.779346 -6.440039
H -16.407286 -5.231227 -5.022801
H -15.098038 -4.373581 -2.972762
H -13.363389 -4.355750 -2.986397
H -12.219790 -5.272014 -1.162412
H -12.016978 -5.226204 1.262602
H -15.732051 -5.500834 3.502930
H -15.512117 -5.603216 5.935497
N 10.701290 -7.333728 7.263867
C 10.674745 -7.182349 5.870509
C 11.073441 -8.273668 5.099074
C 11.067541 -8.215724 3.708447
C 10.635721 -7.062979 3.045100
C 10.684066 -6.986213 1.556646
C 9.634763 -6.423425 0.823864
C 9.695416 -6.354552 -0.566666
C 10.806227 -6.849156 -1.266074
C 10.846352 -6.759254 -2.815276
C 12.142684 -7.378628 -3.429365
C 12.182312 -7.274933 -4.971203
C 12.093341 -5.780574 -5.360637
C 10.795744 -5.107235 -4.826069
C 10.748546 -3.629318 -5.294700
C 10.732725 -3.343399 -6.667092
C 10.730192 -2.029669 -7.124868
C 10.743307 -0.960418 -6.225369
C 10.779317 0.444547 -6.721191
C 11.644017 1.380210 -6.145350
C 11.706092 2.682880 -6.634809
C 10.892972 3.100754 -7.688884
N 11.086505 4.395186 -8.191225
C 10.041940 2.151407 -8.277295
C 9.975322 0.847074 -7.792165
C 10.742605 -1.238550 -4.855366
C 10.744595 -2.552926 -4.393927
C 10.788714 -5.269552 -3.269785
C 9.567157 -5.892677 -5.379303
C 9.593299 -7.403289 -4.987972
C 8.337158 -8.124248 -5.545477
C 7.059171 -7.658000 -5.203823
C 5.914334 -8.276554 -5.700551
C 6.014032 -9.384907 -6.545598
C 4.795521 -10.046475 -7.088057
C 3.761245 -9.290443 -7.647623
C 2.638612 -9.916648 -8.185850
C 2.499384 -11.304892 -8.152493
N 1.387663 -11.877561 -8.784880
C 3.549545 -12.058998 -7.606225
C 4.676567 -11.439206 -7.072558
C 7.283953 -9.860661 -6.880682
C 8.429336 -9.240734 -6.390995
C 10.933691 -7.999470 -5.529424
C 9.629744 -7.512709 -3.434663
C 11.856291 -7.411488 -0.524268
C 11.794188 -7.476156 0.863611
C 10.171334 -5.987189 3.809300
C 10.176259 -6.052301 5.202169
H 11.412140 -9.173383 5.591168
H 11.403352 -9.074883 3.146842
H 8.760940 -6.043444 1.332746
H 8.864513 -5.912669 -1.095981
H 12.230780 -8.428265 -3.143269
H 13.026250 -6.880797 -3.026106
H 13.096883 -7.722185 -5.364868
H 12.154578 -5.698900 -6.446395
H 12.968792 -5.248619 -4.983705
H 10.738660 -4.139814 -7.396189
H 10.740303 -1.844530 -8.189091
H 12.294492 1.092695 -5.332592
H 12.402179 3.382365 -6.196129
H 9.437052 2.421371 -9.128937
H 9.304504 0.143360 -8.262419
H 10.744428 -0.429733 -4.139245
H 10.753588 -2.705980 -3.326170
H 11.637229 -4.738279 -2.835175
H 9.894556 -4.794515 -2.864806
H 8.657248 -5.413959 -5.016566
H 9.518907 -5.817074 -6.465998
H 6.940121 -6.807725 -4.549128
H 4.943293 -7.895072 -5.420027
H 3.837133 -8.213949 -7.691567
H 1.862108 -9.318785 -8.639402
H 3.498325 -13.136950 -7.610082
H 5.465168 -12.047049 -6.654010
H 7.387247 -10.711017 -7.538990
H 9.380022 -9.650752 -6.692561
H 10.953532 -7.950780 -6.619630
H 11.005544 -9.058043 -5.273903
H 9.656423 -8.562862 -3.138352
H 8.701093 -7.120256 -3.021727
H 12.740962 -7.807920 -0.996572
H 12.624590 -7.906249 1.404486
H 9.817042 -5.089195 3.325199
H 9.802685 -5.211762 5.766410
N -1.458760 14.867882 7.242969
C -1.511238 14.940610 5.842498
C -1.721460 13.755901 5.134390
C -1.848647 13.754387 3.746448
C -1.786664 14.951956 3.029065
C -1.908557 14.962200 1.546952
C -0.985869 15.663670 0.768147
C -1.105448 15.692460 -0.617324
C -2.159886 15.032410 -1.264158
C -2.274979 15.116416 -2.808494
C -2.343978 16.607325 -3.255779
C -2.411771 16.757475 -4.793710
C -3.671693 16.017895 -5.302292
C -3.656188 14.503850 -4.936631
C -4.913915 13.803263 -5.513692
C -5.168830 13.875216 -6.890502
C -6.294145 13.272106 -7.442337
C -7.191441 12.568097 -6.636464
C -8.397683 11.934021 -7.233121
C -9.227267 12.663739 -8.088930
C -10.350661 12.071198 -8.659074
C -10.659123 10.732001 -8.419825
N -11.818374 10.209546 -9.005204
C -9.844274 10.013039 -7.532013
C -8.724129 10.604395 -6.950103
C -6.936129 12.476595 -5.265879
C -5.815259 13.088544 -4.708883
C -3.542372 14.401948 -3.380701
C -2.372003 13.862080 -5.537448
C -1.068372 14.546176 -5.025791
C 0.172578 13.837778 -5.628617
C 1.123373 14.518168 -6.404820
C 2.219610 13.845541 -6.938498
C 2.396314 12.477111 -6.716833
C 3.559903 11.756612 -7.303010
C 4.847085 12.296392 -7.225926
C 5.931179 11.622289 -7.783590
C 5.763402 10.379728 -8.414824
N 6.797772 9.693973 -9.065208
C 4.469854 9.866823 -8.517105
C 3.382817 10.533671 -7.956698
C 1.455878 11.796441 -5.939754
C 0.362275 12.467296 -5.400593
C -1.163917 16.063042 -5.400791
C -1.031168 14.454308 -3.471187
C -3.077278 14.318122 -0.477388
C -2.948820 14.281763 0.909274
C -1.619004 16.148457 3.730395
C -1.503978 16.144064 5.117748
H -1.779244 12.822083 5.673567
H -1.989652 12.817226 3.228336
H -0.165976 16.186789 1.238454
H -0.367900 16.241262 -1.183468
H -1.481448 17.166809 -2.893366
H -3.210362 17.090240 -2.800009
H -2.443314 17.811186 -5.076783
H -3.743011 16.161015 -6.380612
H -4.566696 16.488359 -4.891098
H -4.495513 14.402447 -7.549652
H -6.465090 13.346076 -8.506586
H -9.008437 13.698858 -8.306315
H -10.987100 12.652633 -9.309443
H -10.084508 8.988488 -7.292010
H -8.103425 10.023170 -6.284142
H -7.620229 11.940669 -4.623958
H -5.673704 12.994334 -3.643787
H -4.435804 14.832918 -2.925365
H -3.516861 13.349557 -3.093714
H -2.369905 12.798201 -5.298504
H -2.392479 13.912971 -6.626849
H 1.034833 15.571961 -6.616652
H 2.929305 14.392050 -7.542473
H 5.009820 13.244610 -6.735040
H 6.909873 12.074259 -7.733446
H 4.310299 8.934491 -9.037939
H 2.395717 10.105453 -8.050683
H 1.574688 10.740329 -5.745936
H -0.340377 11.905697 -4.803236
H -1.187395 16.180553 -6.485618
H -0.270878 16.590590 -5.061472
H -0.112848 14.920407 -3.111767
H -0.971957 13.413842 -3.149346
H -3.907297 13.786138 -0.914856
H -3.675479 13.736123 1.493710
H -1.598462 17.089306 3.200095
H -1.410593 17.087702 5.632508
C -11.189845 -5.632720 11.891984
C -12.484830 -6.415768 11.635926
C -13.743696 -5.724839 12.228200
N -14.995921 -6.355205 11.809842
C -15.170215 -6.297062 10.360709
C -14.071856 -7.078068 9.600096
C -14.226925 -6.891593 8.085787
C -12.629277 -6.880711 10.158469
H -10.359712 -5.973188 11.277280
H -12.413828 -7.328124 12.228787
H -13.756307 -4.666091 11.957393
H -13.690107 -5.745057 13.318963
H -15.768989 -5.892052 12.272346
H -15.191847 -5.254196 10.033702
H -16.152779 -6.707977 10.118836
H -14.322775 -8.119636 9.803554
H -15.213655 -7.183386 7.732727
H -12.379933 -5.939806 9.660235
H -11.842052 -7.513321 9.745812
C 8.693291 -5.071725 12.304318
C 9.960224 -5.776611 11.806552
C 9.880800 -7.296950 12.091150
N 11.028721 -8.009115 11.537560
C 10.987004 -7.952217 10.077228
C 11.198528 -6.503446 9.553818
C 11.027004 -6.372287 8.034124
C 10.417078 -5.417117 10.354764
H 8.477689 -5.300382 13.346288
H 10.765445 -5.441376 12.460720
H 8.952793 -7.718353 11.694963
H 9.851603 -7.480679 13.167389
H 11.879865 -7.560091 11.849307
H 10.042640 -8.363341 9.710658
H 11.762986 -8.609715 9.679251
H 12.255892 -6.325557 9.751153
H 11.263659 -5.374311 7.672201
H 9.453025 -5.505278 9.845616
H 10.631132 -4.368932 10.140494
C -0.938921 12.510162 11.829097
C -0.760561 14.001272 11.542723
C 0.692746 14.448168 11.836652
N 0.983219 15.801392 11.365362
C 0.816447 15.925479 9.919973
C -0.636715 15.653908 9.456764
C -0.720931 15.652979 7.924766
C -1.328041 14.447015 10.163745
H -0.924847 11.875276 10.946133
H -1.340725 14.550460 12.286639
H 1.406336 13.747000 11.397074
H 0.871328 14.409286 12.913880
H 1.924174 16.060410 11.636906
H 1.511635 15.252088 9.412148
H 1.113580 16.935677 9.629812
H -1.175704 16.540356 9.792784
H -0.095889 16.418524 7.470263
H -0.919916 13.647611 9.540143
H -2.391121 14.287983 9.976095
C -4.216155 -12.778570 -8.216016
C -3.078679 -13.558227 -8.891411
C -2.962518 -13.277349 -10.415044
N -1.763623 -13.867427 -11.007976
C -0.554369 -13.280982 -10.433566
C -0.411804 -13.589869 -8.918934
C 0.760172 -12.853269 -8.257017
C -1.735162 -13.467319 -8.107310
H -4.252559 -12.934392 -7.140270
H -3.368645 -14.609071 -8.867518
H -2.976838 -12.201321 -10.606529
H -3.840216 -13.676486 -10.928101
H -1.772726 -13.699589 -12.006855
H -0.548074 -12.201932 -10.608051
H 0.313000 -13.670958 -10.970304
H -0.151854 -14.648880 -8.914851
H 1.016083 -13.265705 -7.283525
H -1.717562 -12.387631 -7.928403
H -1.729177 -13.817862 -7.074248
C -14.552146 4.864614 -9.536640
C -14.445006 6.213192 -10.258399
C -15.638404 7.125670 -9.886515
N -15.522980 8.461030 -10.467087
C -14.349148 9.169327 -9.956860
C -13.011261 8.457866 -10.299020
C -11.799458 9.076738 -9.589345
C -13.049955 6.906369 -10.189885
H -15.503900 4.371332 -9.723135
H -14.613877 6.003819 -11.315201
H -15.735178 7.202984 -8.800380
H -16.570833 6.680058 -10.239747
H -16.352236 9.003538 -10.256928
H -14.441002 9.302669 -8.875959
H -14.341556 10.178549 -10.374507
H -12.889977 8.678033 -11.360008
H -10.902071 8.467008 -9.671542
H -12.860126 6.805732 -9.117749
H -12.194593 6.348752 -10.574280
C 10.119711 5.099757 -8.624935
C 10.328666 6.490541 -9.221786
C 10.032083 6.485663 -10.740854
N 9.998397 7.829698 -11.312876
C 8.938228 8.641755 -10.718608
C 9.141143 8.873560 -9.195762
C 7.944602 9.561721 -8.524824
C 9.626121 7.618949 -8.411250
H 9.081426 4.775771 -8.617244
H 11.395560 6.720103 -9.183661
H 9.088072 5.976222 -10.949903
H 10.800661 5.907828 -11.259329
H 9.861421 7.774286 -12.315027
H 7.969185 8.174115 -10.910303
H 8.905488 9.604607 -11.232873
H 9.965930 9.586327 -9.167384
H 8.181173 9.939048 -7.532327
H 8.653790 7.142600 -8.254787
H 9.925734 7.750033 -7.370274
