326

N -8.488379 -2.768827 7.966501
C -7.153646 -2.340471 7.939908
C -6.838444 -1.200953 7.197780
C -5.541844 -0.689683 7.174466
C -4.526573 -1.296306 7.920640
C -3.137822 -0.759484 7.905690
C -2.036638 -1.619239 7.818649
C -0.737667 -1.099720 7.833632
C 0.469248 -1.979626 7.791701
C 1.627721 -1.596523 7.103890
C 2.755483 -2.415689 7.097503
C 2.768629 -3.627846 7.803901
N 3.862480 -4.501251 7.828141
C 1.597822 -4.025744 8.447955
C 0.467369 -3.213333 8.452954
N -0.513520 0.239424 7.911792
C -1.571910 1.088369 8.012595
C -1.248032 2.539106 8.162486
C -2.018745 3.355526 8.998631
C -1.698208 4.699504 9.173512
C -0.593672 5.265107 8.537468
N -0.332212 6.624756 8.741863
C 0.147497 4.461277 7.658911
C -0.165954 3.114968 7.484968
C -2.889360 0.614889 8.001030
C -4.842350 -2.413725 8.698796
C -6.138969 -2.918974 8.718524
H -7.612880 -0.713178 6.624809
H -5.329272 0.180368 6.570672
H -2.189495 -2.684579 7.736159
H 1.654767 -0.657992 6.569557
H 3.631246 -2.102994 6.548591
H 1.576468 -4.971062 8.969667
H -0.405773 -3.543868 8.995132
H -2.860474 2.948342 9.538760
H -2.301634 5.310489 9.828449
H 0.980190 4.883537 7.116198
H 0.438616 2.515024 6.820402
H -3.713243 1.307822 8.080904
H -4.086007 -2.884983 9.309104
H -6.359258 -3.765372 9.351048
N -9.709197 -5.274280 4.481554
C -9.141547 -4.816492 3.284318
C -8.366161 -3.650089 3.173457
C -7.808722 -3.272560 1.953491
C -7.978277 -4.072264 0.819756
C -7.429599 -3.653464 -0.497873
C -7.634726 -2.356391 -0.979419
C -7.173544 -2.001252 -2.251683
C -7.421997 -0.644852 -2.819877
C -7.811487 -0.479882 -4.154838
C -8.101579 0.786793 -4.658525
C -8.002765 1.917764 -3.847376
N -8.331844 3.172491 -4.362766
C -7.577268 1.756765 -2.523616
C -7.297363 0.492157 -2.013683
N -6.513611 -2.889830 -3.042660
C -6.278436 -4.144752 -2.572717
C -5.548972 -5.078104 -3.478939
C -4.580460 -5.947762 -2.966759
C -3.933017 -6.857239 -3.798489
C -4.262131 -6.952688 -5.159792
N -3.643505 -7.850183 -6.041242
C -5.182208 -6.039730 -5.676464
C -5.824679 -5.119241 -4.850597
C -6.728524 -4.550420 -1.311011
C -8.690400 -5.268698 0.940700
C -9.252438 -5.635972 2.160631
H -8.202954 -3.025008 4.038512
H -7.237980 -2.357621 1.892735
H -8.189119 -1.642380 -0.389180
H -7.910121 -1.340368 -4.800483
H -8.415956 0.895692 -5.685640
H -7.474852 2.625449 -1.889395
H -6.980085 0.400728 -0.985590
H -4.319617 -5.918152 -1.919079
H -3.178171 -7.506762 -3.380194
H -5.416042 -6.062932 -6.730399
H -6.554308 -4.446325 -5.277060
H -6.551480 -5.560596 -0.973418
H -8.829284 -5.910492 0.083030
H -9.803751 -6.561796 2.234332
N 6.828935 -4.115230 4.652640
C 6.231414 -4.168606 3.386516
C 4.861663 -4.390169 3.168600
C 4.328823 -4.374628 1.880400
C 5.145438 -4.103857 0.777990
C 4.588289 -4.085936 -0.602799
C 3.722014 -5.091058 -1.051059
C 3.240699 -5.059450 -2.364524
C 2.353645 -6.122311 -2.916835
C 1.247192 -5.796409 -3.708764
C 0.451609 -6.796856 -4.261874
C 0.765454 -8.154030 -4.078989
N 0.009773 -9.214472 -4.601335
C 1.828753 -8.468140 -3.231560
C 2.619296 -7.471621 -2.663118
N 3.583360 -4.064012 -3.224494
C 4.425735 -3.082397 -2.805537
C 4.814768 -2.053841 -3.817373
C 5.034684 -0.724458 -3.436033
C 5.436465 0.225804 -4.371616
C 5.640212 -0.127469 -5.708740
N 6.025749 0.825729 -6.650836
C 5.392992 -1.444741 -6.097234
C 4.988767 -2.397506 -5.164945
C 4.936598 -3.071547 -1.502977
C 6.500577 -3.838662 0.996029
C 7.027473 -3.858240 2.284165
H 4.204917 -4.574410 4.005839
H 3.272849 -4.555678 1.743251
H 3.436926 -5.897336 -0.392361
H 1.004801 -4.760773 -3.899330
H -0.403984 -6.513067 -4.856579
H 2.058770 -9.504895 -3.035722
H 3.459531 -7.755855 -2.047084
H 4.890718 -0.416398 -2.411311
H 5.598876 1.248905 -4.064446
H 5.529829 -1.728874 -7.129626
H 4.824097 -3.413936 -5.491733
H 5.614109 -2.289111 -1.196631
H 7.155284 -3.620049 0.165271
H 8.075130 -3.641963 2.432438
N 1.529154 8.646458 5.776619
C 1.059137 8.150782 4.552697
C 0.025010 7.207335 4.435300
C -0.361864 6.718459 3.189645
C 0.298818 7.132178 2.029185
C -0.118960 6.622330 0.695084
C 0.827554 6.176388 -0.235807
C 0.409955 5.700815 -1.483942
C 1.371694 5.223808 -2.522834
C 1.049241 4.152913 -3.366826
C 1.939809 3.727493 -4.348815
C 3.177428 4.354833 -4.510342
N 4.040448 3.973874 -5.536893
C 3.499431 5.425771 -3.674375
C 2.612937 5.851137 -2.687355
N -0.907315 5.652329 -1.816138
C -1.836725 6.097944 -0.930536
C -3.255114 6.054172 -1.390156
C -4.125880 7.114642 -1.112778
C -5.437347 7.098031 -1.583740
C -5.915036 6.019563 -2.329522
N -7.212104 6.043880 -2.844164
C -5.053024 4.947235 -2.584662
C -3.739113 4.964950 -2.125169
C -1.470411 6.580819 0.330112
C 1.363967 8.029903 2.145727
C 1.742428 8.519475 3.393461
H -0.485199 6.853013 5.319142
H -1.170186 6.004293 3.131363
H 1.877283 6.183199 0.015811
H 0.098942 3.649022 -3.265799
H 1.670554 2.905102 -4.994479
H 4.446468 5.929501 -3.798935
H 2.889195 6.689353 -2.065368
H -3.780298 7.973178 -0.556266
H -6.090827 7.933445 -1.382251
H -5.409564 4.105102 -3.160699
H -3.090654 4.131006 -2.351417
H -2.228784 6.924757 1.017365
H 1.897807 8.360607 1.267140
H 2.569734 9.209862 3.465429
C -8.771687 -4.009439 7.931415
C -10.212536 -4.528157 7.976169
C -10.389363 -5.760837 8.896310
C -11.447677 -6.660663 8.248844
C -11.432316 -8.126107 8.688615
C -12.470441 -8.628000 9.481766
C -12.457685 -9.958524 9.892303
C -11.404754 -10.787651 9.513249
C -10.363245 -10.297474 8.729238
C -10.375911 -8.967059 8.318882
C -11.291490 -6.389981 6.748953
C -10.909854 -4.899167 6.623058
C -10.249272 -4.467324 5.305621
H -8.026489 -4.797192 7.842109
H -10.819502 -3.737535 8.423697
H -9.462979 -6.338354 8.935344
H -10.623044 -5.530874 9.936974
H -12.429788 -6.271226 8.527020
H -13.290924 -7.992857 9.783072
H -13.260767 -10.345990 10.502329
H -11.394985 -11.820116 9.831250
H -9.548952 -10.946424 8.441147
H -9.560697 -8.595069 7.715543
H -12.163469 -6.692382 6.167183
H -10.492836 -7.015857 6.347711
H -11.871156 -4.381932 6.621501
H -10.296567 -3.392053 5.147213
C 5.022001 -4.061930 8.113004
C 6.246110 -4.981341 8.195665
C 7.194768 -4.626606 9.370456
C 8.435702 -3.918348 8.779577
C 8.804956 -2.582439 9.423189
C 7.927677 -1.493971 9.358114
C 8.270580 -0.282860 9.953049
C 9.490193 -0.160215 10.614493
C 10.369601 -1.238027 10.686377
C 10.026529 -2.449296 10.091227
C 8.198300 -3.860766 7.261042
C 7.177001 -4.971356 6.951411
C 6.527245 -4.954907 5.560781
H 5.240516 -3.015996 8.315248
H 5.897705 -6.008339 8.328555
H 6.689634 -4.037225 10.139250
H 7.498509 -5.578241 9.810900
H 9.270217 -4.614658 8.892119
H 6.981391 -1.579957 8.846046
H 7.594229 0.558082 9.901132
H 9.756638 0.779754 11.075600
H 11.313687 -1.134566 11.201326
H 10.714347 -3.280269 10.152366
H 9.117699 -3.928795 6.677209
H 7.754449 -2.906507 6.969968
H 7.757274 -5.895844 6.969448
H 5.799611 -5.752084 5.424257
C 0.846593 7.009026 9.036644
C 1.210786 8.481170 9.271069
C 0.414206 9.165881 10.403669
C 0.414801 10.666742 10.093947
C -0.650480 11.506243 10.801857
C -0.270756 12.588593 11.603692
C -1.238123 13.357263 12.245900
C -2.586073 13.045466 12.085379
C -2.975523 11.972408 11.287465
C -2.008318 11.203885 10.645350
C 0.402238 10.723160 8.563263
C 1.178873 9.484527 8.065150
C 0.714898 8.979096 6.696905
H 1.690921 6.330852 9.143023
H 2.242971 8.467067 9.625909
H -0.618142 8.810564 10.397691
H 0.759563 8.941145 11.413745
H 1.380036 11.056509 10.425303
H 0.771909 12.840122 11.733744
H -0.944570 14.192222 12.865442
H -3.336634 13.641986 12.583405
H -4.023162 11.737773 11.166698
H -2.318833 10.374709 10.025991
H 0.756138 11.678831 8.173447
H -0.638749 10.668509 8.237357
H 2.205834 9.832813 7.931615
H -0.366879 8.908746 6.604100
C -3.515631 -9.072607 -5.707911
C -2.823389 -10.110221 -6.598544
C -3.415845 -11.536925 -6.446974
C -2.240087 -12.522898 -6.428416
C -2.508771 -13.862528 -5.740233
C -2.628669 -15.028302 -6.505004
C -2.884179 -16.248850 -5.885369
C -3.024319 -16.303955 -4.500735
C -2.913672 -15.148973 -3.730335
C -2.658208 -13.928559 -4.349868
C -1.064663 -11.698401 -5.894493
C -1.273020 -10.275651 -6.448192
C -0.466725 -9.152306 -5.781679
H -3.858579 -9.473168 -4.756196
H -2.997346 -9.811554 -7.634628
H -3.919940 -11.637114 -5.483197
H -4.153308 -11.807817 -7.203983
H -1.985508 -12.757056 -7.464811
H -2.524421 -14.995896 -7.579919
H -2.974047 -17.149017 -6.475960
H -3.222507 -17.250910 -4.019870
H -3.026691 -15.199663 -2.657089
H -2.581108 -13.037151 -3.744479
H -0.094259 -12.141964 -6.122303
H -1.079867 -11.681252 -4.803592
H -0.867633 -10.328406 -7.460431
H -0.340937 -8.289760 -6.432708
C -9.354211 3.774604 -3.894643
C -9.800327 5.190231 -4.305202
C -10.825718 5.180518 -5.466174
C -10.087230 5.605345 -6.757690
C -10.188862 4.628363 -7.928194
C -10.746869 5.048734 -9.139727
C -10.842718 4.161983 -10.209311
C -10.379858 2.855692 -10.066793
C -9.821786 2.427912 -8.864281
C -9.726840 3.314498 -7.795307
C -8.645856 5.932116 -6.325630
C -8.705131 6.180357 -4.810056
C -7.349826 6.226562 -4.098179
H -10.007960 3.334851 -3.144274
H -10.258228 5.651500 -3.428442
H -11.347498 4.225401 -5.559454
H -11.567746 5.939366 -5.210830
H -10.517819 6.566280 -7.048614
H -11.107431 6.060224 -9.258156
H -11.273366 4.485800 -11.145662
H -10.453074 2.168166 -10.896855
H -9.462198 1.414475 -8.760631
H -9.290120 2.980787 -6.865321
H -8.207071 6.757338 -6.888406
H -7.985537 5.078224 -6.494529
H -9.106111 7.189715 -4.700326
H -6.516617 6.426967 -4.769148
C 5.133273 1.603753 -7.118434
C 5.425416 2.745146 -8.103035
C 6.916639 3.065932 -8.346819
C 6.973357 4.489403 -8.916589
C 8.310173 5.239748 -8.921104
C 8.376864 6.486075 -9.554754
C 9.571530 7.200466 -9.581733
C 10.706245 6.667998 -8.975683
C 10.655774 5.427462 -8.345397
C 9.460660 4.713253 -8.318372
C 5.822803 5.194658 -8.190743
C 4.722250 4.142166 -7.928063
C 3.867219 4.474687 -6.693637
H 4.079052 1.521309 -6.861362
H 5.083483 2.351380 -9.061623
H 7.441172 3.044742 -7.389744
H 7.455286 2.334505 -8.951107
H 6.712675 4.423140 -9.975315
H 7.501322 6.905665 -10.028525
H 9.618366 8.162684 -10.070619
H 11.634245 7.220773 -8.995620
H 11.540894 5.019079 -7.879526
H 9.450768 3.751806 -7.828016
H 5.487453 6.100605 -8.697310
H 6.225224 5.558007 -7.241278
H 4.036730 4.228626 -8.772839
H 3.087878 5.203206 -6.909819
